  Page 1                                    Thu Mar 26 10:53:35 2020

  ******************************************************************
  *                           E P A N E T                          *
  *                   Hydraulic and Water Quality                  *
  *                   Analysis for Pipe Networks                   *
  *                         Version 2.00.12                        *
  ******************************************************************
  
  Input Error 233: Node 1 is unconnected.
  Input Error 200: one or more errors in input file.