  Page 1                                    Mon Oct 21 04:31:50 2019

  ******************************************************************
  *                           E P A N E T                          *
  *                   Hydraulic and Water Quality                  *
  *                   Analysis for Pipe Networks                   *
  *                         Version 2.00.12                        *
  ******************************************************************
  
  Analysis begun Mon Oct 21 04:31:50 2019

     0:00:00: Reservoir P1 is emptying
   
  Analysis ended Mon Oct 21 04:31:50 2019
