  Page 1                                    Wed Sep 25 02:46:15 2019

  ******************************************************************
  *                           E P A N E T                          *
  *                   Hydraulic and Water Quality                  *
  *                   Analysis for Pipe Networks                   *
  *                         Version 2.00.12                        *
  ******************************************************************
  
  Analysis begun Wed Sep 25 02:46:15 2019

  kjkdjsdkajslhjgjgjfjfgjf
  WARNING: Negative pressures at 6:21:24 hrs.
  WARNING: Pump 9 open but exceeds maximum flow at 6:21:24 hrs.
  
  WARNING: Negative pressures at 7:00:00 hrs.
  WARNING: Pump 9 open but exceeds maximum flow at 7:00:00 hrs.
  
  WARNING: Negative pressures at 8:00:00 hrs.
  WARNING: Pump 9 open but exceeds maximum flow at 8:00:00 hrs.
  
  WARNING: Negative pressures at 9:00:00 hrs.
  WARNING: Pump 9 open but exceeds maximum flow at 9:00:00 hrs.
  
  WARNING: Negative pressures at 10:00:00 hrs.
  WARNING: Pump 9 open but exceeds maximum flow at 10:00:00 hrs.
  
  WARNING: Negative pressures at 11:00:00 hrs.
  WARNING: Pump 9 open but exceeds maximum flow at 11:00:00 hrs.
  
  WARNING: Negative pressures at 12:00:00 hrs.
  WARNING: Pump 9 open but exceeds maximum flow at 12:00:00 hrs.
  
  WARNING: Negative pressures at 13:00:00 hrs.
  WARNING: Pump 9 open but exceeds maximum flow at 13:00:00 hrs.
  
  WARNING: Negative pressures at 14:00:00 hrs.
  WARNING: Pump 9 open but exceeds maximum flow at 14:00:00 hrs.
  
  WARNING: Negative pressures at 15:00:00 hrs.
  WARNING: Pump 9 open but exceeds maximum flow at 15:00:00 hrs.
  
  WARNING: Negative pressures at 16:00:00 hrs.
  WARNING: Pump 9 open but exceeds maximum flow at 16:00:00 hrs.
  
  WARNING: Negative pressures at 17:00:00 hrs.
  WARNING: Pump 9 open but exceeds maximum flow at 17:00:00 hrs.
  
  WARNING: Negative pressures at 18:00:00 hrs.
  WARNING: Pump 9 open but exceeds maximum flow at 18:00:00 hrs.
  
  WARNING: Negative pressures at 19:00:00 hrs.
  WARNING: Pump 9 open but exceeds maximum flow at 19:00:00 hrs.
  
  WARNING: Negative pressures at 20:00:00 hrs.
  WARNING: Pump 9 open but exceeds maximum flow at 20:00:00 hrs.
  
  WARNING: Negative pressures at 21:00:00 hrs.
  WARNING: Pump 9 open but exceeds maximum flow at 21:00:00 hrs.
  
  WARNING: Negative pressures at 22:00:00 hrs.
  WARNING: Pump 9 open but exceeds maximum flow at 22:00:00 hrs.
  
  WARNING: Negative pressures at 23:00:00 hrs.
  WARNING: Pump 9 open but exceeds maximum flow at 23:00:00 hrs.
  
  WARNING: Negative pressures at 24:00:00 hrs.
  WARNING: Pump 9 open but exceeds maximum flow at 24:00:00 hrs.
  