  Page 1                                    Wed Sep 25 10:22:28 2019

  ******************************************************************
  *                           E P A N E T                          *
  *                   Hydraulic and Water Quality                  *
  *                   Analysis for Pipe Networks                   *
  *                         Version 2.00.12                        *
  ******************************************************************
  
  Analysis begun Wed Sep 25 10:22:28 2019

  File Error 305: cannot open hydraulics file.
  Analysis ended Wed Sep 25 10:22:28 2019
